Version 4
SHEET 1 880 680
WIRE -192 -448 -688 -448
WIRE 96 -448 -192 -448
WIRE -192 -416 -192 -448
WIRE 96 -368 96 -448
WIRE -192 -320 -192 -336
WIRE 32 -320 -192 -320
WIRE -192 -304 -192 -320
WIRE -352 -240 -528 -240
WIRE 96 -240 96 -272
WIRE -352 -208 -352 -240
WIRE -192 -192 -192 -224
WIRE 0 -192 -192 -192
WIRE 0 -144 0 -192
WIRE -688 -128 -688 -448
WIRE -528 -128 -528 -240
WIRE -192 -112 -192 -192
WIRE -192 -112 -224 -112
WIRE -352 -96 -352 -128
WIRE -288 -96 -352 -96
WIRE -192 -80 -224 -80
WIRE 96 -80 96 -160
WIRE -352 -64 -352 -96
WIRE 96 -64 96 -80
WIRE 96 -64 48 -64
WIRE 192 -64 96 -64
WIRE -192 -16 -192 -80
WIRE 96 -16 96 -64
WIRE 192 -16 192 -64
WIRE 0 16 0 -48
WIRE -864 48 -864 -48
WIRE -688 48 -688 -48
WIRE -528 48 -528 -48
WIRE -352 48 -352 16
WIRE 96 96 96 64
WIRE 192 96 192 48
FLAG -192 -16 0
FLAG -352 48 0
FLAG -528 48 0
FLAG 0 16 0
FLAG -688 48 0
FLAG 96 96 0
FLAG 96 -80 VLatch
FLAG -864 48 0
FLAG 192 96 0
SYMBOL AutoGenerated\\TL431 -256 -96 M180
SYMATTR InstName U1
SYMBOL res -368 -80 R0
SYMATTR InstName R1
SYMATTR Value 22.6K
SYMBOL res -368 -224 R0
SYMATTR InstName R2
SYMATTR Value 10K
SYMBOL voltage -528 -144 R0
WINDOW 123 0 0 Left 2
WINDOW 39 0 0 Left 2
SYMATTR InstName V1
SYMATTR Value PULSE(0 3.65 3m 1m 1n 10m 20m)
SYMBOL nmos 48 -144 M0
SYMATTR InstName M1
SYMATTR Value 2N7002
SYMBOL res -208 -320 R0
SYMATTR InstName R3
SYMATTR Value 10K
SYMBOL res -208 -432 R0
SYMATTR InstName R4
SYMATTR Value 1K
SYMBOL voltage -688 -144 R0
WINDOW 123 0 0 Left 2
WINDOW 39 0 0 Left 2
SYMATTR InstName V2
SYMATTR Value PULSE(0 12 0 {DLY})
SYMBOL pnp 32 -272 M180
SYMATTR InstName Q1
SYMATTR Value 2N3906
SYMBOL res 80 -256 R0
SYMATTR InstName R5
SYMATTR Value 10K
SYMBOL res 80 -32 R0
SYMATTR InstName R6
SYMATTR Value 10K
SYMBOL voltage -864 -144 R0
WINDOW 123 0 0 Left 2
WINDOW 39 0 0 Left 2
SYMATTR InstName V3
SYMATTR Value 12
SYMBOL cap 176 -16 R0
SYMATTR InstName C1
SYMATTR Value 1p
TEXT -722 120 Left 2 !.tran 40m
TEXT -728 152 Left 2 !.step param DLY 0 1m 0.1m
